electric-grid/physical/reference/ieee-24bus/models/ieee-24-bus.m
function mpc = case24_ieee_rts
%CASE24_IEEE_RTS  Power flow data for the IEEE RELIABILITY TEST SYSTEM.
%   Please see CASEFORMAT for details on the case file format.
%
%   The IEEE 24-bus reliability test system was developped by the iEEE
%   reliability subcommittee and published in 1979 as benchmarck for
%   testing variuos reliability analysis methods. The the three reliability
%   test systems are IEEE one-area, IEEE two-areas, and IEEE three-areas.
%   More informations may be found at http://icseg.iti.illinois.edu/ieee-24-bus-system/

%   MATPOWER

%% MATPOWER Case Format : Version 2
mpc.version = '2';

%%-----  Power Flow Data  -----%%
%% system MVA base
mpc.baseMVA = 100;

%% bus data
%	bus_i	type	Pd      Qd	Gs	Bs          area	Vm	Va      baseKV      zone	Vmax	Vmin
mpc.bus = [
	1       3        0      0	0	-120        1       1	0       138         1       1.05	0.95;
	2       2        97     20	0	0           1       1	0       138         1       1.05	0.95;
	3       1        90     19	0	0           1       1	0       138         1       1.05	0.95;
	4       1        74     15	0	0           1       1	0       138         1       1.05	0.95;
	5       1        71     14	0	0           1       1	0       138         1       1.05	0.95;
	6       1        68     14	0   -82.51      1       1	0       138         1       1.05	0.95;
	7       2        62	    13	0	0           1       1	0       138         1       1.05	0.95;
	8       1        85     18	0	0           1       1	0       138         1       1.05	0.95;
	9       1        175	36	0	0           1       1	0       138         1       1.05	0.95;
	10      1        100	23	0	0           1       1	0       138         1       1.05	0.95;
	11      1        0      0	0	0           1       1	0       230         1       1.05	0.95;
	12      1        0      0	0	0           1       1	0       230         1       1.05	0.95;
	13      2        130	27	0	0           1       1	0       230         1       1.05	0.95;
	14      2        92     20	0	0           1       1	0       230         1       1.05	0.95;
	15      2        158	32	0	0           1       1	0       230         1       1.05	0.95;
	16      2        100	20	0	0           1       1	0       230         1       1.05	0.95;
	17      1        0      0	0	0           1       1	0       230         1       1.05	0.95;
	18      2        162	34	0	0           1       1	0       230         1       1.05	0.95;
	19      1        90     18	0	0           1       1	0       230         1       1.05	0.95;
	20      1        65     13	0	0           1       1	0       230         1       1.05	0.95;
	21      2        0      0	0	0           1       1	0       230         1       1.05	0.95;
	22      2        0      0	0	0           1       1	0       230         1       1.05	0.95;
	23      2        0      0	0	0           1       1	0       230         1       1.05	0.95;
	24      1        0      0	0	0           1       1	0       230         1       1.05	0.95;
];

%% generator data
%	bus	Pg      Qg      Qmax	Qmin        Vg      mBase	status	Pmax	Pmin	Pc1	Pc2	Qc1min	Qc1max	Qc2min	Qc2max	ramp_agc	ramp_10	ramp_30	ramp_q	apf	%	Unit Code
mpc.gen = [
	1	35.85	180.36	1000     -1000       1.000	100     1       1000     0      0	0	0       0       0       0       0           0       0       0       0;	%	
	2	67      0       1000     -1000       1.000	100     1       1000     0      0	0	0       0       0       0       0           0       0       0       0;	%	
	7	64      0       1000     -1000       1.000	100     1       1000     0      0	0	0       0       0       0       0           0       0       0       0;	%	
	13	200     0       1000     -1000       1.000	100     1       1000     0      0	0	0       0       0       0       0           0       0       0       0;	%	
	14	0       0       1000     -1000       1.000	100     1       1000     0      0	0	0       0       0       0       0           0       0       0       0;	%	
	15	274     0       1000     -1000       1.000	100     1       1000     0      0	0	0       0       0       0       0           0       0       0       0;	%	
	16	245     0       1000     -1000       1.000	100     1       1000     0      0	0	0       0       0       0       0           0       0       0       0;	%	
	18	144     0       1000     -1000       1.000	100     1       1000     0      0	0	0       0       0       0       0           0       0       0       0;	%	
	21	294     0       1000     -1000       1.000	100     1       1000     0      0	0	0       0       0       0       0           0       0       0       0;	%	
	22	150     199     1000     -1000       1.000	100     1       1000     0      0	0	0       0       0       0       0           0       0       0       0;	%	
	23	200     0       1000     -1000       1.000	100     1       1000     0      0	0	0       0       0       0       0           0       0       0       0;	%	
];

%% branch data
%	fbus	tbus	r       x       b       rateA	rateB	rateC	ratio	angle	status	angmin	angmax
mpc.branch = [
	1       2       0.0007	0.00123	0.00065	175     250     200     0       0       1       -360	360;
	1       5       0.02243	0.0849	0.0244	175     208     220     0       0       1       -360	360;
	2       4       0.03361	0.1273	0.0366	175     208     220     0       0       1       -360	360;
	2       6       0.05064	0.19201	0.0557	175     208     220     0       0       1       -360	360;
    3       1       0.05419	0.21114	0.0613	175     208     220     0       0       1       -360	360;
	3       9       0.03148	0.11921	0.0343	175     208     220     0       0       1       -360	360;
	4       9       0.02692	0.10779	0.0279	175     208     220     0       0       1       -360	360;
	5       10      0.02334	0.08837	0.0254	175     208     220     0       0       1       -360	360;
	7       8       0.01614	0.06103	0.0179	175     208     220     0       0       1       -360	360;
	8       9       0.04234	0.16482	0.0478	175     208     220     0       0       1       -360	360;
	8       10      0.04234	0.16482	0.0478	175     208     220     0       0       1       -360	360;
	9       12      0.0023	0.0839	0       400     510     600     1.03	0       1       -360	360;
	10      6       0.02262	0.03333	0.13029	175     175     175     1.02	0       1       -360	360;
	11      9       0.0023	0.0839	0       400     400     400     0       0       1       -360	360;
	11      10      0.0023	0.0839	0       400     400     400     0       0       1       -360	360;
    11      13      0.00583	0.04746	0.0959	500     625     625     0       0       1       -360	360;
    11      14      0.00513	0.04746	0.0843	500     625     625     0       0       1       -360	360;
	12      10      0.0023	0.0839	0       400     400     400     0       0       1       -360	360;
	12      13      0.00583	0.0476	0.0959	500     625     625     0       0       1       -360	360;
    12      23      0.01224	0.09644	0.1984	500     625     625     0       0       1       -360	360;
	14      16      0.00477	0.03884	0.0785	500     625     625     0       0       1       -360	360;
	15      16      0.0022	0.0173	0.0364	500     600     625     0       0       1       -360	360;
	15      21      0.00607	0.04899	0.1006	500     600     625     0       0       1       -360	360;
	15      24      0.00642	0.05187	0.1066	500     600     625     0       0       1       -360	360;
	16      15      0.00212	0.17269	0.0349	500     600     625     0       0       1       -360	360;
	16      17      0.00318	0.0259	0.0523	500     600     625     0       0       1       -360	360;
    16      19      0.00283	0.02302	0.0465	500     600     625     0       0       1       -360	360;
	17      18      0.00177	0.01439	0.0291	500     600     625     0       0       1       -360	360;
	17      22      0.01225	0.10527	0.2116	500     600     625     0       0       1       -360	360;
	18      21      0.00331	0.02595	0.0533	500     600     625     0       0       1       -360	360;
	18      21      0.00331	0.02595	0.0533	500     600     625     0       0       1       -360	360;
	19      20      0.00505	0.03964	0.0814	500     600     625     0       0       1       -360	360;
	19      20      0.00505	0.03964	0.0814	500     600     625 	0       0       1       -360	360;
	20      23      0.00276	0.02163	0.0444	500     600     625     0       0       1       -360	360;
	20      23      0.00276	0.02163	0.0444	500     600     625     0       0       1       -360	360;
	21      15      0.00607	0.04899	0.1006	500     600     625     0       0       1       -360	360;
    21      22      0.00829	0.06769	0.1367	500     600     625     0       0       1       -360	360;
    23      13      0.0106	0.08643	0.1752	500     600     625     0       0       1       -360	360;
    24      3       0.0023	0.0839	0       400     600     625     0       0       1       -360	360;
];

%%-----  OPF Data  -----%%
%% generator cost data
%	1	startup	shutdown	n	x1	y1	...	xn	yn
%	2	startup	shutdown	n	c(n-1)	...	c0


